*Heading
** Job name: 7-17-Bottom-Barber Model name: Model-1
** Generated by: Abaqus/CAE 6.12-2
*Preprint, echo=NO, model=NO, history=NO, contact=NO
**
** PARTS
**
*Part, name=Part-1
*Node
      1,           0.,        -100.
      2,           2.,        -100.
      3,           4.,        -100.
      4,           6.,        -100.
      5,           8.,        -100.
      6,          10.,        -100.
      7,          12.,        -100.
      8,          14.,        -100.
      9,          16.,        -100.
     10,          18.,        -100.
     11,          20.,        -100.
     12,          22.,        -100.
     13,          24.,        -100.
     14,          26.,        -100.
     15,          28.,        -100.
     16,          30.,        -100.
     17,          32.,        -100.
     18,          34.,        -100.
     19,          36.,        -100.
     20,          38.,        -100.
** ... 10231 like lines cut
*Element, type=CPE4
    1,     1,     2,   203,   202
    2,     2,     3,   204,   203
    3,     3,     4,   205,   204
    4,     4,     5,   206,   205
    5,     5,     6,   207,   206
    6,     6,     7,   208,   207
    7,     7,     8,   209,   208
    8,     8,     9,   210,   209
    9,     9,    10,   211,   210
   10,    10,    11,   212,   211
   11,    11,    12,   213,   212
   12,    12,    13,   214,   213
   13,    13,    14,   215,   214
   14,    14,    15,   216,   215
   15,    15,    16,   217,   216
   16,    16,    17,   218,   217
   17,    17,    18,   219,   218
   18,    18,    19,   220,   219
   19,    19,    20,   221,   220
   20,    20,    21,   222,   221
** ... 9980 like lines cut
*Nset, nset=_PickedSet2, internal, generate
     1,  10251,      1
*Elset, elset=_PickedSet2, internal, generate
     1,  10000,      1
** Section: Section-1
*Solid Section, elset=_PickedSet2, material=Material-1
,
*End Part
**  
**
** ASSEMBLY
**
*Assembly, name=Assembly
**  
*Instance, name=Part-1-1, part=Part-1
*End Instance
**  
*Instance, name=Part-1-2, part=Part-1
*End Instance
**  
*End Assembly
** 
** MATERIALS
** 
*Material, name=Material-1
*Elastic
 2e+11, 0.3
** ----------------------------------------------------------------
** 
*STEP, name=exportmatrix
*MATRIX GENERATE, STIFFNESS
*MATRIX OUTPUT, STIFFNESS, FORMAT=MATRIX INPUT
*END STEP
**
** STEP: Step-1
** 
*Step, name=Step-1
*Static
1., 1., 1e-05, 1.
** 
** OUTPUT REQUESTS
** 
*Restart, write, frequency=0
** 
** FIELD OUTPUT: F-Output-1
** 
*Output, field, variable=PRESELECT
** 
** HISTORY OUTPUT: H-Output-1
** 
*Output, history, variable=PRESELECT
*End Step
