*Heading
** Job name: Stacked_B Model name: Stacked_B_Used
** Generated by: Abaqus/CAE 6.12-2
*Preprint, echo=NO, model=NO, history=NO, contact=NO
** ----------------------------------------------------------------
** 
** PART INSTANCE: Beam_2d-Top
** 
*Node
      1,       3.3125,        0.125
      2,       3.3125,       -0.125
      3,           4.,       -0.125
      4,           4.,        0.125
      5,        3.125,        0.125
      6,        3.125,       -0.125
      7,        2.875,        0.125
      8,        2.875,       -0.125
      9,       2.6875,        0.125
     10,       2.6875,       -0.125
     11,           2.,        0.125
     12,           2.,       -0.125
     13,          1.5,        0.125
     14,          1.5,       -0.125
     15,          -4.,        0.125
     16,          -4.,       -0.125
     17,       3.3125,  0.104166664
     18,       3.3125, 0.0833333358
     19,       3.3125,       0.0625
     20,       3.3125, 0.0416666679
** ... 2151 like lines cut
*Element, type=CPE4
  1,   1,  17, 423,  96
  2,  17,  18, 424, 423
  3,  18,  19, 425, 424
  4,  19,  20, 426, 425
  5,  20,  21, 427, 426
  6,  21,  22, 428, 427
  7,  22,  23, 429, 428
  8,  23,  24, 430, 429
  9,  24,  25, 431, 430
 10,  25,  26, 432, 431
 11,  26,  27, 433, 432
 12,  27,   2,  28, 433
 13,  96, 423, 434,  95
 14, 423, 424, 435, 434
 15, 424, 425, 436, 435
 16, 425, 426, 437, 436
 17, 426, 427, 438, 437
 18, 427, 428, 439, 438
 19, 428, 429, 440, 439
 20, 429, 430, 441, 440
** ... 1972 like lines cut
*Nset, nset=Beam_2d-Top__PickedSet28, generate
    1,  2171,     1
*Elset, elset=Beam_2d-Top__PickedSet28, generate
    1,  1992,     1
** Section: ShellSectionH
*Solid Section, elset=Beam_2d-Top__PickedSet28, material=STEEL
,
** ----------------------------------------------------------------
** 
** PART INSTANCE: Beam_2d-Bottom
** 
*System
 8.88178419700125e-16,       -0.25,          0.,          1.,       -0.25,          0.
*Node
   2172,       3.3125,        0.125
   2173,       3.3125,       -0.125
   2174,           4.,       -0.125
   2175,           4.,        0.125
   2176,        3.125,        0.125
   2177,        3.125,       -0.125
   2178,        2.875,        0.125
   2179,        2.875,       -0.125
   2180,       2.6875,        0.125
   2181,       2.6875,       -0.125
   2182,           2.,        0.125
   2183,           2.,       -0.125
   2184,          1.5,        0.125
   2185,          1.5,       -0.125
   2186,          -4.,        0.125
   2187,          -4.,       -0.125
   2188,       3.3125,  0.104166664
   2189,       3.3125, 0.0833333358
   2190,       3.3125,       0.0625
   2191,       3.3125, 0.0416666679
** ... 2151 like lines cut
*Element, type=CPE4
1993, 2172, 2188, 2594, 2267
1994, 2188, 2189, 2595, 2594
1995, 2189, 2190, 2596, 2595
1996, 2190, 2191, 2597, 2596
1997, 2191, 2192, 2598, 2597
1998, 2192, 2193, 2599, 2598
1999, 2193, 2194, 2600, 2599
2000, 2194, 2195, 2601, 2600
2001, 2195, 2196, 2602, 2601
2002, 2196, 2197, 2603, 2602
2003, 2197, 2198, 2604, 2603
2004, 2198, 2173, 2199, 2604
2005, 2267, 2594, 2605, 2266
2006, 2594, 2595, 2606, 2605
2007, 2595, 2596, 2607, 2606
2008, 2596, 2597, 2608, 2607
2009, 2597, 2598, 2609, 2608
2010, 2598, 2599, 2610, 2609
2011, 2599, 2600, 2611, 2610
2012, 2600, 2601, 2612, 2611
** ... 1972 like lines cut
*Nset, nset=Beam_2d-Bottom__PickedSet28, generate
 2172,  4342,     1
*Elset, elset=Beam_2d-Bottom__PickedSet28, generate
 1993,  3984,     1
** Section: ShellSectionH
*Solid Section, elset=Beam_2d-Bottom__PickedSet28, material=STEEL
,
*System
*Nset, nset=_PickedSet38
  15,  16, 376, 377, 378, 379, 380, 381, 382, 383, 384, 385, 386
*Nset, nset=_PickedSet38
2186,2187,2547,2548,2549,2550,2551,2552,2553,2554,2555,2556,2557
*Elset, elset=_PickedSet38, generate
 1981,  1992,     1
*Elset, elset=_PickedSet38, generate
 3973,  3984,     1
*Elset, elset=BotBeamElems, generate
 1993,  3984,     1
*Nset, nset=BotBeamNodes, generate
 2172,  4342,     1
*Elset, elset=TopBeamElems, generate
    1,  1992,     1
*Nset, nset=TopBeamNodes, generate
    1,  2171,     1
*Elset, elset=_s_TopSurf_S2
   12,   24,   36,   48,   60,   72,   84,   96,  108,  120,  132,  144,  156,  168,  180,  192
  204,  216,  228,  240,  252,  264,  276,  288,  300,  312,  324,  336,  348,  360,  600,  612
  624,  636,  648,  660,  672,  684,  696,  708,  720,  732,  744,  756,  768,  780,  792,  804
  816,  828,  840,  852,  864,  876,  888,  900,  912,  924,  936,  948,  960,  972,  984,  996
 1008, 1020, 1032, 1044, 1056, 1068, 1080, 1092, 1104, 1116
*Elset, elset=_s_TopSurf_S4
  361,  373,  385,  397,  409,  421,  433,  445,  457,  469,  481,  493,  505,  517,  529,  541
  553,  565,  577, 1117, 1129, 1141, 1153, 1165, 1177, 1189, 1201, 1213, 1225, 1237, 1249, 1261
 1273, 1285, 1297, 1309, 1321, 1333, 1345, 1357, 1369, 1381, 1393, 1405, 1417, 1429, 1441, 1453
 1465,
*Surface, type=ELEMENT, name=s_TopSurf
_s_TopSurf_S2, S2
_s_TopSurf_S4, S4
*Elset, elset=_TopPressureSurf_S4, generate
 589,  877,   12
*Surface, type=ELEMENT, name=TopPressureSurf
_TopPressureSurf_S4, S4
*Elset, elset=_m_BotSurf_S4
 1993, 2005, 2017, 2029, 2041, 2053, 2065, 2077, 2089, 2101, 2113, 2125, 2137, 2149, 2161, 2173
 2185, 2197, 2209, 2221, 2233, 2245, 2257, 2269, 2281, 2293, 2305, 2317, 2329, 2341, 2581, 2593
 2605, 2617, 2629, 2641, 2653, 2665, 2677, 2689, 2701, 2713, 2725, 2737, 2749, 2761, 2773, 2785
 2797, 2809, 2821, 2833, 2845, 2857, 2869, 2881, 2893, 2905, 2917, 2929, 2941, 2953, 2965, 2977
 2989, 3001, 3013, 3025, 3037, 3049, 3061, 3073, 3085, 3097
*Elset, elset=_m_BotSurf_S2
 2364, 2376, 2388, 2400, 2412, 2424, 2436, 2448, 2460, 2472, 2484, 2496, 2508, 2520, 2532, 2544
 2556, 2568, 2580, 3120, 3132, 3144, 3156, 3168, 3180, 3192, 3204, 3216, 3228, 3240, 3252, 3264
 3276, 3288, 3300, 3312, 3324, 3336, 3348, 3360, 3372, 3384, 3396, 3408, 3420, 3432, 3444, 3456
 3468,
*Surface, type=ELEMENT, name=m_BotSurf
_m_BotSurf_S4, S4
_m_BotSurf_S2, S2
*Elset, elset=_BotPressureSurf_S2, generate
2592, 2880,   12
*Surface, type=ELEMENT, name=BotPressureSurf
_BotPressureSurf_S2, S2
** 
** MATERIALS
** 
*Material, name=STEEL
*Density
 0.000733952,
*Elastic
 2.9e+07, 0.285
** 
** INTERACTION PROPERTIES
** 
*Surface Interaction, name=FrictionContactProp
1.,
*Friction, lagrange
 0.6,
*Surface Behavior, pressure-overclosure=HARD
** 
** BOUNDARY CONDITIONS
** 
** Name: BC-1 Type: Symmetry/Antisymmetry/Encastre
*Boundary
_PickedSet38, ENCASTRE
** 
** INTERACTIONS
** 
** Interaction: ContactInt
*Contact Pair, interaction=FrictionContactProp, type=SURFACE TO SURFACE
s_TopSurf, m_BotSurf
** ----------------------------------------------------------------
** 
** STEP: BoltPreLoad
** 
*Step, name=BoltPreLoad, nlgeom=YES, inc=1000000
*Static, stabilize, factor=0.0002, allsdtol=0., continue=NO
0.5, 1., 1e-08, 1.
** 
** LOADS
** 
** Name: PressureLoadBot   Type: Pressure
*Dsload
BotPressureSurf, P, 2546.
** Name: PressureLoadTop   Type: Pressure
*Dsload
TopPressureSurf, P, 2546.
** 
** OUTPUT REQUESTS
** 
*Restart, write, frequency=0
** 
** FIELD OUTPUT: F-Output-1
** 
*Output, field, variable=PRESELECT
*Node Output
RF, U 
*Element Output, directions=YES
S, 
*Contact Output
CDISP, CDISPETOS, CFORCE, CNAREA, CSTATUS, CSTRESS
** 
** HISTORY OUTPUT: H-Output-1
** 
*Output, history
*Contact Output
CAREA, CFN1, CFN2, CFN3, CFNM, CFS1, CFS2, CFS3, CFSM
*End Step

